<?xml version="1.0" encoding="UTF-8"?>

<!-- generated on 2025-04-04 20:59:38 by Eclipse SUMO duarouter Version 1.22.0
<duarouterConfiguration xmlns:xsi="http://www.w3.org/2001/XMLSchema-instance" xsi:noNamespaceSchemaLocation="http://sumo.dlr.de/xsd/duarouterConfiguration.xsd">

    <input>
        <net-file value="osm4.net.xml"/>
        <route-files value="osm4.passenger.trips.xml"/>
    </input>

    <output>
        <output-file value="osm4.rou.xml"/>
    </output>

</duarouterConfiguration>
-->

<routes xmlns:xsi="http://www.w3.org/2001/XMLSchema-instance" xsi:noNamespaceSchemaLocation="http://sumo.dlr.de/xsd/routes_file.xsd">
    <vType id="veh_passenger" vClass="passenger"/>
    <vehicle id="veh0" type="veh_passenger" depart="0.00" departLane="best">
        <route edges="297314919#2 114394269#0 114394269#1 114394269#2 25858176#0 25858176#1 25858176#2 680469091#0 580233733#0 580233733#1 580233733#2 580233733#3 1120654527#0 1120654527#1 44487115#0 -125649974#2 -125649974#1 -125649974#0 1105899637 529988204 26539559 26539556#0 26539556#1 26539556#2 26539556#3 -726087087 25858105#5 -1146445562"/>
    </vehicle>
    <vehicle id="veh1" type="veh_passenger" depart="2.15" departLane="best" departSpeed="max">
        <route edges="-924040728 924040727#0 924040727#1 -53787716#2 -53787716#1 -53787716#0 24716359 1107995862 1108002034 1107995864 1107834555#0 1107834555#2 1107834555#3 1107834555#4 1107834555#5 1107834555#6 1107834555#7 1110381875#0 1110381875#1 1110410173 572078974 1112388296 1110386759 1110373781#0 1110373781#1 26539662 1110386762 4821520#0 4821520#1 1108002031 265736012 1110560011#0 1110560011#1 25858120 1304099487 1303984490#1 1303983520 1303330284#0 1303330284#1 1169312579#0 1169312579#1 1169312579#2 1169312579#3 1169312579#4 296151766#1 296151766#2 1110554991#0 1313803236#0 1313803237 231934729#1 231934729#2 231934729#3 231934729#4 231934729#6 231934729#7 1153349815#0 1153349815#1 1153349815#2 1153349815#3 1153349815#4 1158813840 1158813839#0 4742005#0 4742005#1 73235524#0 73235524#1 73235524#2 73235524#4 73235524#5 73235524#6"/>
    </vehicle>
    <vehicle id="veh2" type="veh_passenger" depart="4.30" departLane="best">
        <route edges="4730072#1 4730072#2 1304104988 1117237548 1117241124 7726359 1115311196 1115308922 1112367259 1112355309 231934730#0 231934730#1 231934730#2 231934730#3 231934730#4 1304099487 1303984490#1 1303983520 1303330284#0 1303330284#1 1151069805#0 1151069805#1 4741911#0 4741911#1 4741911#2 4741911#3 4741911#4 4741911#5 4741911#6 4741911#7 4730089#0 4730089#1 1302579121#0 1302579121#1 1151069803 1120654528#0 1120654528#1 1120654528#2 4741910#0 4741910#1 44629696#0 44629696#1"/>
    </vehicle>
    <vehicle id="veh3" type="veh_passenger" depart="6.45" departLane="best">
        <route edges="678538989#2 -1110385745#1 -1110385745#0 -1110563002#2 -1110563002#1 -1110563002#0 -1112495258#1 -1112495258#0 -4821485#5 -26539634#2 -26539634#1 -26539634#0 26539590#8"/>
    </vehicle>
    <vehicle id="veh4" type="veh_passenger" depart="8.60" departLane="best">
        <route edges="1151073357#3 1151073357#4 1151073357#5 1120654528#0 1120654528#1 1120654528#2 1151069804 4730089#0 4730089#1 1302579121#0 1302579121#1 1151075683#0 1151075683#1 1151075683#2 4716887#0 4716887#1 4716887#3 4716887#4 1153342734 1180148407 -1180148408#2 -1180148408#1"/>
    </vehicle>
    <vehicle id="veh5" type="veh_passenger" depart="10.75" departLane="best" departSpeed="max">
        <route edges="-680556384#2 -680556384#1 -680556384#0 -680556385#0 -679406616#4 -679406616#3 -679406616#2 -679406616#0 40478817#10 4716861#0 4716861#2 4716861#3 1151073357#4 1151073357#5 1120654528#0 1120654528#1 1120654528#2 4741910#0 4741910#1 44629696#0 44629696#1 44629696#2 44629696#3 1074997666 -297314919#6 -297314919#4 -297314919#3 114394269#0 114394269#1 114394269#2 25858176#0 25858176#1 25858176#2 680469091#0 680469091#1 680469091#2 1169312579#2 1169312579#3 1169312579#4 296151766#1 296151766#2 372934056 1110554990 231934728#0 231934728#1 231934728#2 231934728#3"/>
    </vehicle>
    <vehicle id="veh6" type="veh_passenger" depart="12.90" departLane="best" departSpeed="max">
        <route edges="-124720759#1 -124720759#0 679622839#1 679622839#2 44629862#0 44629862#1 44629862#2 1110563002#0 1110563002#1 1110563002#2 1110385745#0 1110385745#1 -678538989#2"/>
    </vehicle>
    <vehicle id="veh7" type="veh_passenger" depart="15.05" departLane="best">
        <route edges="344195670 1106119758 1106112785 25858169#0 25858169#1 701465142 1110554989#1 231934726#0-AddedOnRampEdge 231934726#0 231934726#1 1151069805#0 1151069805#1 4741911#0 4741911#1 4741911#2 4741911#3 4741911#4 4741911#5 4741911#6 4741911#7 4730089#0 4730089#1 1302579121#0 1302579121#1 1151075683#0 1151075683#1 1151075683#2 4716887#0 4716887#1 4716887#3 4716887#4 1153342734 1153342733 1153341024#0 51164168 -96882517#10 -96882517#9 -96882517#8 247389749#0"/>
    </vehicle>
    <vehicle id="veh8" type="veh_passenger" depart="17.20" departLane="best" departSpeed="max">
        <route edges="-680556384#2 -680556384#1 -680556384#0 -680556385#0 -679406616#4 -679406616#3 -679406616#2 -679406616#0 40478817#10 4716861#0 4716861#2 4716861#3 1151073357#4 1151073357#5 1120654528#0 1120654528#1 1120654528#2 4741910#0 4741910#1 4741910#2 297314798#1 297314798#2 297314798#3 297314798#4 297314798#5 1120654527#0 1120654527#1 44487115#0 -125649974#2 -125649974#1 -125649974#0 1105899637 529988204 1153486862 1106114134 1153488288 1107821541 4821485#0 4821485#1 4821485#2 4821485#3 4821485#4 4821485#5 1112495258#0 1112495258#1 1110563002#0 1110563002#1 25858128#0 25858128#1 25858128#2 -26539590#5 -26539590#4 -26539649#2 -26539649#1 -26539649#0 26539643#2"/>
    </vehicle>
    <vehicle id="veh9" type="veh_passenger" depart="19.35" departLane="best" departSpeed="max">
        <route edges="4742013#0 4742013#1 4742013#2 1158813839#0 1158814388 1153349815#0 4741915#0 4741915#1 4741915#3 1120654528#2 4741910#0 4741910#1 4741910#2 297314798#1 297314798#2 297314798#3 297314798#4 297314798#5 1120654527#0 1120654527#1 44487115#0 -125649974#2 -125649974#1 -125649974#0 1105899637 529988204 26539559 26539556#0 26539556#1 26539556#2 26539556#3 53787717#0 53787717#1 53787717#2 53787717#3 53787717#4 -7726701#1 -7726701#0 -1099982604#2 -1099982604#1 -1099982604#0"/>
    </vehicle>
    <vehicle id="veh11" type="veh_passenger" depart="23.65" departLane="best">
        <route edges="1110554989#1 231934726#0-AddedOnRampEdge 231934726#0 231934726#1 1151069805#0 1151069805#1 4741911#0 4741911#1 4741911#2 4741911#3 4741911#4 4741911#5 4741911#6 4741911#7 4730089#0 4730089#1 1302579121#0 1302579121#1 1151075683#0 1151075683#1 1151075683#2 4716887#0 4716887#1 4716887#3 4716887#4 1153342734 1180148407 -1180148408#2 -1180148408#1 -1180148408#0 -986631677 -4727387#1"/>
    </vehicle>
    <vehicle id="veh13" type="veh_passenger" depart="27.94" departLane="best">
        <route edges="-26539634#1 -26539634#0 -26539590#7 -26539590#6 -26539590#5 -26539590#4 -26539649#2 -26539649#1 -26539649#0"/>
    </vehicle>
    <vehicle id="veh14" type="veh_passenger" depart="30.09" departLane="best">
        <route edges="53787717#6 53787717#7 53787717#8 53787717#9 53787717#10 53787717#11 53787717#12 53787717#13 53787717#14 680371923 572078979#3 572078979#5 1110373778#0 1110373778#1 1107834556 1107995862 1108002034 1107995864 1107834555#0 1107834555#2 1107834555#3 1107834555#4 1107834555#5 1107834555#6 26720545#0"/>
    </vehicle>
    <vehicle id="veh16" type="veh_passenger" depart="34.39" departLane="best">
        <route edges="231934729#7 1153349815#0 4741915#0 4741915#1 4741915#3 1120654528#2 4741910#0 4741910#1 4741910#2 297314798#1 297314798#2 297314798#3 297314798#4 297314798#5 1120654527#0 1120654527#1 44487115#0 -125649974#2 -125649974#1 -125649974#0 1105899637 529988204 1153486862 1106114134 1153488288 1107821541 4821485#0 4821485#1 4821485#2 4821485#3 4821485#4 4821485#5 1112495258#0 1112495258#1 1110563002#0 1110563002#1 1110563002#2 1110385745#0 1110385745#1 88389012#0 88389012#1"/>
    </vehicle>
    <vehicle id="veh17" type="veh_passenger" depart="36.54" departLane="best">
        <route edges="1117237548 1117241124 7726359 1115311196 1115308922 1112367259 1112355309 231934730#0 231934730#1 231934730#2 231934730#3 231934730#4 1304099487 1303984490#1 1303983520 1303330284#0 1303330284#1 1151069805#0 1151069805#1 4741911#0 4741911#1 4741911#2 4741911#3 4741911#4 -297314919#10 -297314919#9 -297314919#8 -297314919#7 -297314919#6 -297314919#4 -297314919#3 -297314919#2 -297314919#1 -297314919#0 -44635131 25692690#3 25692690#4 25692690#5"/>
    </vehicle>
    <vehicle id="veh18" type="veh_passenger" depart="38.69" departLane="best">
        <route edges="4821485#4 -26539634#2 125685159#0 125685159#1 700979164#1 1107821541 344195670 1106119758 1106112785 25858169#0 25858169#1 701465142 1110554989#1 231934726#0-AddedOnRampEdge 231934726#0 231934726#1 1151069805#0 1151069805#1 4741911#0 4741911#1 4741911#2 4741911#3 4741911#4 4741911#5 4741911#6 4741911#7 4730089#0 4730089#1 1302579121#0 1302579121#1 1151075683#0 1151075683#1 1151075683#2 1151073357#2 296149415#0"/>
    </vehicle>
    <vehicle id="veh19" type="veh_passenger" depart="40.84" departLane="best">
        <route edges="114394273#3 114394273#5 704425499 297314798#2 297314798#3 297314798#4 297314798#5 1120654527#0 1120654527#1 44487115#0 -125649974#2 -125649974#1 -125649974#0 1105899637 529988204 1153486862 1106114134 1153488288 1107821541 4821485#0 4821485#1 4821485#2 4821485#3 4821485#4 4821485#5 1112495258#0 1112495258#1 1110563002#0 1110563002#1 1110563002#2 1110385745#0 1110385745#1 1110385745#3 572078987#0 572078987#1 1169315195 572078979#0 26539590#0"/>
    </vehicle>
    <vehicle id="veh20" type="veh_passenger" depart="42.99" departLane="best">
        <route edges="4716861#3 1151073357#4 1151073357#5 1120654528#0 1120654528#1 1120654528#2 4741910#0 4741910#1 4741910#2 297314798#1 297314798#2 297314798#3 297314798#4 297314798#5 1120654527#0 1120654527#1 44487115#0 -125649974#2 -125649974#1 -125649974#0 1105899637 529988204 26539559 26539556#0 26539556#1 26539556#2 26539556#3 53787717#0 53787717#1 53787717#2 53787717#3 53787717#4 53787717#6 53787717#7 53787717#8 53787717#9 53787717#10 53787717#11 53787717#12 53787717#13 53787717#14 680371923 572078979#3 572078979#5 1110373778#0 1110373778#1 24716352#0 24716352#1 53787716#0 53787716#1 53787716#2 125730121 -924040727#0 -125730122"/>
    </vehicle>
    <vehicle id="veh21" type="veh_passenger" depart="45.14" departLane="best" departSpeed="max">
        <route edges="-726087081#1 -726087081#0 239074444#1 659312604#1 4741904#3 4741908#0 4741908#3 4741908#4 4741908#6 4741908#7 4741907#6 4741907#7 4741907#0 4741907#1 4741907#2 580233740#0 580233740#1 580233740#2 580233740#3 580233740#5 580233740#6 7726728#7 704740287 680263996#0 680263996#1 680263996#2 700769845#1 700769845#2 297314798#4 297314798#5 1120654527#0 1120654527#1 44487115#0 -125649974#2 -125649974#1 -125649974#0 1105899637 529988204 1153486862 1106114134 1153488288 1107821541 344195670 701465140#0 701465140#1 1110554994"/>
    </vehicle>
    <vehicle id="veh22" type="veh_passenger" depart="47.29" departLane="best" departSpeed="max">
        <route edges="-262775041#1 -262775041#0 26723401#9 26723401#10 26723401#11 26723401#12 26723401#13 4716860#10 4716860#11 4716860#12 4716860#13 1151073357#2 1151073357#3 1151073357#4 1151073357#5 1120654528#0 1120654528#1 1120654528#2 4741910#0 4741910#1 4741910#2 297314798#1 297314798#2 297314798#3 297314798#4 297314798#5 1120654527#0 1120654527#1 44487115#0 -125649974#2 -125649974#1 -125649974#0 1105899637 529988204 1153486862 1106114134 1153488288 1107821541 4821485#0 4821485#1 4821485#2 4821485#3 4821485#4 4821485#5 1112495258#0 1112495258#1 1110563002#0 1110563002#1 1110563002#2 1110385745#0 1110385745#1 1110385745#3 680095197#0 680095197#1 572078983#0 1337646635 -840597271#1 -840597271#0"/>
    </vehicle>
    <vehicle id="veh23" type="veh_passenger" depart="49.44" departLane="best">
        <route edges="-26584047#1 -26584047#0 1117240826 1117239305#1 239164441 1115308922 1112367259 1112355309 231934730#0 231934730#1 231934730#2 231934730#3 231934730#4 1304099487 1303984490#1 1303983520 1303330284#0 1303330284#1 44487115#0 44487115#1 1153475365 1107832406#1 1106112785"/>
    </vehicle>
    <vehicle id="veh24" type="veh_passenger" depart="51.59" departLane="best">
        <route edges="297314798#4 700769846 4741911#1 4741911#2 4741911#3 704425499 41294345#0 41294345#1 41294345#2 580233744#0 580233744#1 580233744#2 580233744#3 113187436#0 113187436#1 113187436#2 113187436#3"/>
    </vehicle>
    <vehicle id="veh25" type="veh_passenger" depart="53.74" departLane="best">
        <route edges="1115308927#0 1115308927#1 1112355309 231934730#0 231934730#1 231934730#2 231934730#3 231934730#4 1304099487 1303984490#1 1303983520 1303330284#0 1303330284#1 1151069805#0 1151069805#1 4741911#0 4741911#1 4741911#2 4741911#3 4741911#4 4741911#5 4741911#6 4741911#7 4730089#0 4730089#1 1302579121#0 1302579121#1 1151075683#0 1151075683#1 1151075683#2 680354992 -1151071818 -239168029#2 -680088156 -680088158#5 -680088158#4 -680088158#3 -680088158#2 -680088158#0"/>
    </vehicle>
    <vehicle id="veh26" type="veh_passenger" depart="55.89" departLane="best" departSpeed="max">
        <route edges="-917679070 262775038 -26723401#3 -26723401#2 -26723401#1 -26723401#0 4716860#5 4716860#6 4716860#7 4716860#9 4716860#10 4716860#11 4716860#12 4716860#13 1151073357#2 1151073357#3 1151073357#4 1151073357#5 1120654528#0 1120654528#1 1120654528#2 4741910#0 4741910#1 4741910#2 297314798#1 297314798#2 297314798#3 297314798#4 297314798#5 1120654527#0 1120654527#1 1110554992 296151764#0 296151764#1 1180148405 1112510529 1112350623#0 1112350623#1 1115306663 296151762#0 296151762#1 296151762#2 1169312573#1 1112350622 1112511231 7726359 1115311196 1115308922 7726330#0 7726330#1 7726330#3 7726330#4 7726330#5 7726330#6"/>
    </vehicle>
    <vehicle id="veh27" type="veh_passenger" depart="58.04" departLane="best">
        <route edges="330461519#3 330461519#4 4741911#7 4730089#0 4730089#1 1302579121#0 1302579121#1 1151075683#0 1151075683#1 1151075683#2 -4716860#13 -4716860#12 -4716860#11 -4716860#10 -4716860#9 -4716860#7 -4716860#6 -4716860#5 26723401#0 26723401#1"/>
    </vehicle>
    <vehicle id="veh28" type="veh_passenger" depart="60.19" departLane="best">
        <route edges="4741909#1 4741909#2 680572844 4741907#0 4741907#1 4741907#2 580233740#0 580233740#1 580233740#2 580233740#3 580233740#5 580233740#6 7726728#7 7726728#8 7726728#1 265735809#0 265735809#2 7726755 680287024 1151069806#0"/>
    </vehicle>
    <vehicle id="veh29" type="veh_passenger" depart="62.34" departLane="best" departSpeed="max">
        <route edges="917679072#0 917679072#1 -26723401#2 -26723401#1 -26723401#0 4716860#5 4716860#6 4716860#7 4716860#9 4716860#10 4716860#11 4716860#12 4716860#13 1151073357#2 1151073357#3 1151073357#4 1151073357#5 1120654528#0 1120654528#1 1120654528#2 4741910#0 4741910#1 4741910#2 297314798#1 297314798#2 297314798#3 297314798#4 297314798#5 1120654527#0 1120654527#1 44487115#0 -125649974#2 -125649974#1 -125649974#0 1105899637 529988204 1153486862 1106114134 1153488288 1107821541 344195670"/>
    </vehicle>
    <vehicle id="veh30" type="veh_passenger" depart="64.49" departLane="best">
        <route edges="25692690#5 25692690#6 25692690#7 -408293314#1 -408293314#0 297314919#4 297314919#6 297314919#7 297314919#8 297314919#9 297314798#1 297314798#2 388178010#9 680797956#0 680797956#2 44629777#1 44629777#2"/>
    </vehicle>
    <vehicle id="veh31" type="veh_passenger" depart="66.64" departLane="best">
        <route edges="-53787717#10 -53787717#9 -53787717#8 -53787717#7 -53787717#6 -53787717#4 -53787717#3 -53787717#2 -53787717#1 -53787717#0 -26539556#3 -26539556#2 -26539556#1 -26539556#0 700979164#1 1107821541 344195670 1106119758 1106112785 25858169#0 25858169#1 701465142 1110554989#1 231934726#0-AddedOnRampEdge 231934726#0 231934726#1 1151069805#0 1151069805#1 4741911#0 4741911#1 4741911#2 4741911#3 4741911#4 4741911#5 4741911#6 4741911#7 4730089#0 4730089#1 1302579121#0 1302579121#1 1151069803 1120654528#0 4741916#0 4741916#1"/>
    </vehicle>
    <vehicle id="veh32" type="veh_passenger" depart="68.79" departLane="best">
        <route edges="726087087 -26539556#3 -26539556#2 -26539556#1 -26539556#0 700979164#1 1107821541 344195670 701465140#0 701465140#1 1110554994 1110554993 1107841611 1106112784#0 1341987172 1341987170 1341987169#0 -124720750#0"/>
    </vehicle>
    <vehicle id="veh34" type="veh_passenger" depart="73.09" departLane="best">
        <route edges="680088158#2 680088158#3 680088158#4 680088158#5 680088156 239168029#2 1151071818 1219966300 1151073357#2 1151073357#3 1151073357#4 1151073357#5 1120654528#0 1120654528#1 1120654528#2 4741910#0 4741910#1 4741910#2 297314798#1 297314798#2 297314798#3 297314798#4 297314798#5 1120654527#0 1120654527#1 1110554992 296151764#0 296151764#1 1180148405 1112510529 1112350623#0 1112350623#1 1115306663 296151762#0 296151762#1 296151762#2 1169312573#1 1112350622 1112511231 7726359 1115311196 1115308922 7726330#0 7726330#1 7726330#3 7726330#4 7726330#5 7726330#6 7726330#7"/>
    </vehicle>
    <vehicle id="veh35" type="veh_passenger" depart="75.23" departLane="best">
        <route edges="580233744#2 25858176#0 25858176#1 25858176#2 680469091#0 580233733#0 580233733#1 580233733#2 580233733#3 1120654527#0 1120654527#1 44487115#0 -125649974#2 -125649974#1 -125649974#0 1105899637 529988204 1153486862 1106114134 1153488288 1107821541 344195670 701465140#0 701465140#1 1110554994 1110554993 1107841611 1106112784#0 1110562340#0 1110562340#1 680070299#0 680070299#1 1110562000"/>
    </vehicle>
    <vehicle id="veh36" type="veh_passenger" depart="77.38" departLane="best">
        <route edges="580233744#2 580233744#3 114394272 1169312579#3 1169312579#4 296151766#1 296151766#2 372934056 1110554990 231934728#0 231934728#1 231934728#2 231934728#3 26539541#0 26539541#1 26539541#2 26539541#3 1153349814#1 1153361121"/>
    </vehicle>
    <vehicle id="veh37" type="veh_passenger" depart="79.53" departLane="best">
        <route edges="680308726#1 1153475365 1107832406#1 1106112785 25858169#0 25858169#1 701465142 1110554989#1 231934726#0-AddedOnRampEdge 231934726#0 231934726#1 1151069805#0 1151069805#1 4741911#0 4741911#1 4741911#2 4741911#3 4741911#4 4741911#5 4741911#6 4741911#7 4730089#0 4730074#0 4730074#1 4730074#2 4730074#3 4730074#4 4730074#5 1302586859#1 1302588074"/>
    </vehicle>
    <vehicle id="veh39" type="veh_passenger" depart="83.83" departLane="best">
        <route edges="26539590#3 26539590#4 26539590#5 26539590#6 26539590#7 26539590#8 26539590#9 -26539601#0 -53787717#1 -53787717#0 -1153488287#3 -1153488287#2 -1153488287#1 -1153488287#0 25858103 1153488286 1106112786 1153349814#1 231933977 231933978 1313803236#0 1313803237 231934729#1 231934729#2 231934729#3 231934729#4 231934729#6 231934729#7 1153349815#0 1153349815#1 1153349815#2 180750385#0 680354994 40478817#0 40478817#1 40478817#2 40478817#3 40478817#5 40478817#6 40478817#7 679406616#0 679406616#2 679406616#3 679406616#4 680556385#0 680556384#0 680556384#1 680556384#2"/>
    </vehicle>
    <vehicle id="veh40" type="veh_passenger" depart="85.98" departLane="best" departSpeed="max">
        <route edges="1142225555 -1099982604#1 -1099982604#0 25858105#7 1090568039#1 1090568039#2 1153488286 1106112786 1153349814#1 231933977 231933978 1313803236#0 114394270#0 114394270#1 114394270#2 114394270#3 388178010#0 388178010#1 113187436#0 113187436#1 113187436#2 113187436#3 297314919#2 297314919#3 408293314#0 -726091596"/>
    </vehicle>
    <vehicle id="veh41" type="veh_passenger" depart="88.13" departLane="best">
        <route edges="96882517#6 96882517#8 96882517#9 96882517#10 39881417 1153341024#2 4716862#0 1227361696 1151073357#2 1151073357#3 1151073357#4 1151073357#5 1120654528#0 1120654528#1 1120654528#2 4741910#0 4741910#1 4741910#2 297314798#1 41294345#0 41294345#1 41294345#2 580233744#0 580233744#1 580233744#2 580233744#3 580233744#4 580233744#5 580233744#6 297314924#0 297314924#2 1313803237 231934729#1 231934729#2"/>
    </vehicle>
    <vehicle id="veh42" type="veh_passenger" depart="90.28" departLane="best">
        <route edges="-26539601#2 -26539601#1 -26539601#0 53787717#2 53787717#3 53787717#4 53787717#6 53787717#7 53787717#8 53787717#9 53787717#10 53787717#11 53787717#12 53787717#13 53787717#14 680371923 572078979#3 572078979#5 1110373778#0 1110373778#1 24716352#0 24716352#1 53787716#0 53787716#1 53787716#2 125730121 -924040727#0 -125730122"/>
    </vehicle>
    <vehicle id="veh43" type="veh_passenger" depart="92.43" departLane="best">
        <route edges="-26723401#0 4716860#5 4716860#6 4716860#7 4716860#9 4716860#10 4716860#11 4716860#12 4716860#13 1151073357#2 1151073357#3 1151073357#4 1151073357#5 1120654528#0 1120654528#1 1120654528#2 4741910#0 4741910#1 4741910#2 297314798#1 297314798#2 297314798#3 297314798#4"/>
    </vehicle>
    <vehicle id="veh44" type="veh_passenger" depart="94.58" departLane="best">
        <route edges="4741915#0 4741915#1 4741915#3 1120654528#2 4741910#0 4741910#1 4741910#2 297314798#1 297314798#2 297314798#3 297314798#4 297314798#5 1120654527#0 1120654527#1 44487115#0 -125649974#2 -125649974#1 -125649974#0 1105899637 529988204 1153486862 1106114134 1153488288 1107821541 4821485#0 4821485#1 4821485#2 4821485#3 4821485#4 4821485#5 1112495258#0 1112495258#1 1341987167#0 1341987167#1 1341987167#2 -679622839#2 -679622839#1 124720759#0 124720759#1"/>
    </vehicle>
    <vehicle id="veh45" type="veh_passenger" depart="96.73" departLane="best">
        <route edges="-25692547#0 330461519#0 330461519#1 330461519#3 330461519#4 4741911#7 4730089#0 4730089#1 1302579121#0 1302579121#1 1151069803 1120654528#0 1120654528#1 1120654528#2 4741910#0 4741910#1 4741910#2 297314798#1 297314798#2 297314798#3 297314798#4 297314798#5 1120654526#1"/>
    </vehicle>
    <vehicle id="veh46" type="veh_passenger" depart="98.88" departLane="best">
        <route edges="96882517#3 96882517#4 96882517#5 96882517#6 96882517#8 96882517#9 96882517#10 39881417 1153341024#2 4716862#0 1227361696 1151073357#2 1151073357#3 1151073357#4 1151073357#5 1120654528#0 1120654528#1 1120654528#2 4741910#0 4741910#1 4741910#2 297314798#1 297314798#2 297314798#3 297314798#4 297314798#5 1120654527#0 1120654527#1 44487115#0 -125649974#2 -125649974#1 -125649974#0 1105899637 529988204 26539559 26539556#0 26539556#1 26539556#2 26539556#3 -1153488287#3 239559120#0"/>
    </vehicle>
    <vehicle id="veh47" type="veh_passenger" depart="101.03" departLane="best">
        <route edges="7726738#0 265735809#2 7726755 680287024 1120654525 44487147#0 44487147#1 1303330284#0 1303330284#1 44487115#0 -125649974#2 -125649974#1 -125649974#0 1105899637 529988204 26539559 26539556#0 26539556#1 26539556#2 26539556#3 53787717#0 53787717#1 53787717#2 53787717#3 53787717#4 -7726701#1 -7726701#0 1099982604#3 1099982604#4 678529529"/>
    </vehicle>
    <vehicle id="veh49" type="veh_passenger" depart="105.33" departLane="best">
        <route edges="44487122#0 44487122#1 680263996#0 680263996#1 680263996#2 700769845#1 700769845#2 297314798#4 297314798#5 1120654527#0 1120654527#1 44487115#0 -125649974#2 -125649974#1 -125649974#0 1105899637 529988204 26539559 26539556#0 26539556#1 26539556#2 26539556#3 53787717#0 53787717#1 53787717#2 53787717#3 53787717#4 53787717#6 53787717#7 53787717#8 53787717#9 53787717#10 53787717#11 53787717#12 53787717#13 53787717#14 680371923 572078979#3 572078979#5 1110373778#0 1110373778#1 1107834556 1107995862 24716336"/>
    </vehicle>
    <vehicle id="veh50" type="veh_passenger" depart="107.48" departLane="best" departSpeed="max">
        <route edges="-917679070 262775038 -26723401#3 -26723401#2 -26723401#1 -26723401#0 4716860#5 4716860#6 4716860#7 4716860#9 4716860#10 4716860#11 4716860#12 4716860#13 1151073357#2 1151073357#3 1151073357#4 1151073357#5 1120654528#0 1120654528#1 1120654528#2 4741910#0 4741910#1 44629696#0 44629696#1 44629696#2 44629696#3 1074997666 -297314919#6 25858228#0 -353311523"/>
    </vehicle>
    <vehicle id="veh51" type="veh_passenger" depart="109.63" departLane="best">
        <route edges="26723401#11 26723401#12 26723401#13 4716860#10 4716860#11 4716860#12 4716860#13 1151073357#2 1151073357#3 1151073357#4 1151073357#5 1120654528#0 1120654528#1 1120654528#2 4741910#0 4741910#1 4741910#2 297314798#1 297314798#2 297314798#3 297314798#4 297314798#5 1120654527#0 1120654527#1 44487115#0 -125649974#2 -125649974#1 -125649974#0 1105899637 529988204 1153486862 1106114134 1153488288 1107821541 4821485#0 4821485#1 4821485#2 4821485#3 4821485#4 4821485#5 1112495258#0 1112495258#1 1110563002#0 125640414#0 125640414#1"/>
    </vehicle>
    <vehicle id="veh52" type="veh_passenger" depart="111.78" departLane="best">
        <route edges="125107469#1 125107469#2 239559104#2 239559120#1 -26539556#2 -26539556#1 -26539556#0 700979164#1 1107821541 344195670 1106119758 1106112785 25858169#0 25858169#1 701465142 1110554989#1 231934726#0-AddedOnRampEdge 231934726#0 231934726#1 1151069805#0 1151069805#1 4741911#0 4741911#1 4741911#2 4741911#3 4741911#4 4741911#5 4741911#6 4741911#7 4730089#0 4730089#1 1302579121#0 1302579121#1 1151075683#0 1151075683#1 1151075683#2 -4716860#13 -4716860#12 -4716860#11 -4716860#10 -26723401#13 -26723401#12 -26723401#11 -26723401#10 -26723401#9 -26723401#8 786411260"/>
    </vehicle>
    <vehicle id="veh54" type="veh_passenger" depart="116.08" departLane="best">
        <route edges="180750385#0 180750385#1 40478814#1 1153349815#4 1158813840 1158813839#0 1158814388 1153349815#0 4741915#0 4741915#1 4741915#3 1120654528#2 4741910#0 4741910#1 4741910#2 297314798#1 297314798#2 297314798#3 297314798#4 297314798#5 1120654527#0 1120654527#1 44487115#0 -125649974#2 -125649974#1 -125649974#0 1105899637 529988204 1153486862 1106114134 1153488288 1107821541 4821485#0 4821485#1 4821485#2 4821485#3 4821485#4 4821485#5 1112495258#0 1112495258#1 1112495257 -4821523#2"/>
    </vehicle>
    <vehicle id="veh55" type="veh_passenger" depart="118.23" departLane="best">
        <route edges="680287023#0 680287023#1 680797956#5 114394273#2 114394273#3 114394273#5 704425499 297314798#2 297314798#3 297314798#4 297314798#5 1120654527#0 1120654527#1 1110554992 296151764#0 296151764#1 1180148405 1112510529 1112350623#0 1112350623#1 1115306663 296151762#0 296151762#1 296151762#2 1169312573#1 1112350622 40131529 1112355308 1112352379 1304104986 -4821519 680036098#0"/>
    </vehicle>
    <vehicle id="veh56" type="veh_passenger" depart="120.38" departLane="best" departSpeed="max">
        <route edges="1062953400#0 1236549930 1236549930-AddedOffRampEdge 1241790585#1 1241790585#2-AddedOnRampEdge 1241790585#2 4730073#1 4730073#2 1302579121#0 1302579121#1 1151069803 1120654528#0 1120654528#1 1120654528#2 1151069804 4730089#0 4730074#0 4730088#0 4730088#1 4730088#2 330461519#0 330461519#1 330461519#3 330461519#4"/>
    </vehicle>
    <vehicle id="veh57" type="veh_passenger" depart="122.53" departLane="best">
        <route edges="26720544#2 26720544#3 1107834555#3 1107834555#4 1107834555#5 1107834555#6 1107834555#7 1110381875#0 1110381875#1 1110410173 572078974 1112388296 1110386759 1110373781#0 1110373781#1 26539662 1110386762 4821520#0 4821520#1 1108002031 265736012 1110560011#0 1110560011#1 25858120 1304099487 1303984490#1 1303983520 1303330284#0 1303330284#1 1151069805#0 1151069805#1 4741911#0 4741911#1 4741911#2 4741911#3 4741911#4 4741911#5 4741911#6 4741911#7 4730089#0 4730089#1 1302579121#0 1302579121#1 1151075683#0 1151075683#1 1151075683#2 4716887#0 4716887#1 4716887#3 4716887#4 1153342734 1180148407 -1180148408#2 -1180148408#1 -1180148408#0 -986631677 -4727387#1 -4727387#0"/>
    </vehicle>
    <vehicle id="veh58" type="veh_passenger" depart="124.67" departLane="best">
        <route edges="4741905#3 4730074#5 1302586859#1 1115308928#0 1115308928#1 1115308928#2 162143537 1115308924 1121914755 1115308927#0 1115308927#1 1112355309 1302578612 1112350622 40131529 1112355308 1112352379 1304104986 1107995866#0 1107995866#1 1107995866#2 1107995865 1117239035 1110373779 4775791 1162630068 1302577993 1302577992 1302575939 1302587746 24716338#0 24716338#1 24716338#2"/>
    </vehicle>
    <vehicle id="veh59" type="veh_passenger" depart="126.82" departLane="best">
        <route edges="4741910#1 44629696#0 44629696#1 44629696#2 44629696#3 1074997666 -297314919#6 -297314919#4 -297314919#3 -297314919#2 -297314919#1 -297314919#0 -297314923 -231934731#1 -231934731#0 231934729#6 231934729#7 1153349815#0 1153349815#1 1153349815#2 1153349815#3 1153349815#4 1158813840 1158813839#0 4742005#0 4742005#1 4742006 24027794"/>
    </vehicle>
    <vehicle id="veh60" type="veh_passenger" depart="128.97" departLane="best" departSpeed="max">
        <route edges="-105268550 239168029#0 239168029#1 239168029#2 1151071818 1219966300 1151073357#2 1151073357#3 1151073357#4 1151073357#5 1120654528#0 1120654528#1 1120654528#2 4741910#0 4741910#1 4741910#2 297314798#1 297314798#2 297314798#3 297314798#4 297314798#5 1120654527#0 1120654527#1 1110554992 296151764#0 296151764#1 1180148405 1112510529 1112350623#0 1112350623#1 1115306663 296151762#0 296151762#1 296151762#2 1169312573#1 1112350622 40131529 1112355308 1112352379"/>
    </vehicle>
    <vehicle id="veh61" type="veh_passenger" depart="131.12" departLane="best">
        <route edges="-1153488287#1 -1153488287#0 25858103 1153488286 660520648#0 660520648#1 660520648#2 529988204 1153486862 1106114134 1153488288 1107821541 344195670 701465140#0 701465140#1 1110554994 1110554993 1107841611 1106112784#0 1110562340#0 1110562340#1 25858120 296151762#0 296151762#1 296151762#2 1169312573#1 1112350622 1112511231 7726359 1115311196 1115308922 7726330#0"/>
    </vehicle>
    <vehicle id="veh62" type="veh_passenger" depart="133.27" departLane="best">